raw_files/raw_files_6n/12Bus.raw
 0,    100.00, 33, 0, 0, 60.00       / October 01, 2013 15:59:49


    1,'Bus1', 230.0000,3,   1,   1,   1,1.02531,   0.0000
    2,'Bus 2', 230.0000,2,   1,   1,   1,1.02683,   3.7961
    3,'Bus 3', 230.0000,2,   1,   1,   1,1.03269,   2.4448
    5,'Bus 5', 230.0000,1,   1,   1,   1,0.99972,  -3.6802
    6,'Bus 6', 230.0000,1,   1,   1,   1,1.01225,  -3.5666
    8,'Bus 8', 230.0000,1,   1,   1,   1,1.01727,   1.3373
    11,'Bus 11',230.0000,2,   1,   1,   1,1.02531,  -2.2174
    12,'Bus 12',230.0000,2,   1,   1,   1,1.02683,   3.7961
    13,'Bus 13',230.0000,2,   1,   1,   1,1.03269,   2.4448
    15,'Bus 15',230.0000,1,   1,   1,   1,0.99972,  -3.6802
    16,'Bus 16',230.0000,1,   1,   1,   1,1.01225,  -3.5666
    18,'Bus 18',230.0000,1,   1,   1,   1,1.01727,   1.3373
0 / END OF BUS DATA, BEGIN LOAD DATA
    5,'1 ',1,   1,   1,   125.000,    50.000,     0.000,     0.000,     0.000,    -0.000,   1,1
    6,'1 ',1,   1,   1,   90.000,    30.000,     0.000,     0.000,     0.000,    -0.000,   1,1
    8,'1 ',1,   1,   1,   100.000,    35.000,     0.000,     0.000,     0.000,    -0.000,   1,1
    15,'1 ',1,   1,   1,   125.000,    50.000,     0.000,     0.000,     0.000,    -0.000,   1,1
    16,'1 ',1,   1,   1,   90.000,    30.000,     0.000,     0.000,     0.000,    -0.000,   1,1
    18,'1 ',1,   1,   1,   100.000,    35.000,     0.000,     0.000,     0.000,    -0.000,   1,1
0 / END OF LOAD DATA, BEGIN FIXED SHUNT DATA
0 / END OF FIXED SHUNT DATA, BEGIN GENERATOR DATA
    1,'1 ',    71.627,    27.915,  9900.000, -9900.000,1.04000,    0,   500.000,   0.00000,   1.00000,   0.00000,   0.00000,1.00000,1,  100.0,   450.000,     0.000,   1,1.0000,   0,1.0000,   0,1.0000,   0,1.0000,0, 1.0000
    2,'1 ',   163.000,     4.903,  9900.000, -9900.000,1.02500,    0,   250.000,   0.00000,   1.00000,   0.00000,   0.00000,1.00000,1,  100.0,   240.000,     0.000,   1,1.0000,   0,1.0000,   0,1.0000,   0,1.0000,0, 1.0000
    3,'1 ',    85.000,   -11.449,  9900.000, -9900.000,1.02500,    0,   100.000,   0.00000,   1.00000,   0.00000,   0.00000,1.00000,1,  100.0,    90.000,     0.000,   1,1.0000,   0,1.0000,   0,1.0000,   0,1.0000,0, 1.0000
    11,'1 ',    71.627,    27.915,  9900.000, -9900.000,1.04000,    0,   500.000,   0.00000,   1.00000,   0.00000,   0.00000,1.00000,1,  100.0,   450.000,     0.000,   1,1.0000,   0,1.0000,   0,1.0000,   0,1.0000,0, 1.0000
    12,'1 ',   163.000,     4.903,  9900.000, -9900.000,1.02500,    0,   250.000,   0.00000,   1.00000,   0.00000,   0.00000,1.00000,1,  100.0,   240.000,     0.000,   1,1.0000,   0,1.0000,   0,1.0000,   0,1.0000,0, 1.0000
    13,'1 ',    85.000,   -11.449,  9900.000, -9900.000,1.02500,    0,   100.000,   0.00000,   1.00000,   0.00000,   0.00000,1.00000,1,  100.0,    90.000,     0.000,   1,1.0000,   0,1.0000,   0,1.0000,   0,1.0000,0, 1.0000
0 / END OF GENERATOR DATA, BEGIN BRANCH DATA
    5,    1,'1 ', 0.01000, 0.06800,0.17600,   0.00,   0.00,   0.00,  0.00000,  0.00000,  0.00000,  0.00000,1,1,   0.0,   1,1.0000,   0,1.0000,   0,1.0000,   0,1.0000
    6,    1,'1 ', 0.01700, 0.09200,0.15800,   0.00,   0.00,   0.00,  0.00000,  0.00000,  0.00000,  0.00000,1,1,   0.0,   1,1.0000,   0,1.0000,   0,1.0000,   0,1.0000
    2,     5,'1 ', 0.03200, 0.16100,0.30600,   0.00,   0.00,   0.00,  0.00000,  0.00000,  0.00000,  0.00000,1,1,   0.0,   1,1.0000,   0,1.0000,   0,1.0000,   0,1.0000
    3,     6,'1 ', 0.03900, 0.17380,0.35800,   0.00,   0.00,   0.00,  0.00000,  0.00000,  0.00000,  0.00000,1,1,   0.0,   1,1.0000,   0,1.0000,   0,1.0000,   0,1.0000
    2,     8,'1 ', 0.00850, 0.05760,0.14900,   0.00,   0.00,   0.00,  0.00000,  0.00000,  0.00000,  0.00000,1,1,   0.0,   1,1.0000,   0,1.0000,   0,1.0000,   0,1.0000
    8,    3,'1 ', 0.01190, 0.10080,0.20900,   0.00,   0.00,   0.00,  0.00000,  0.00000,  0.00000,  0.00000,1,1,   0.0,   1,1.0000,   0,1.0000,   0,1.0000,   0,1.0000
    15,    11,'1 ', 0.01000, 0.06800,0.17600,   0.00,   0.00,   0.00,  0.00000,  0.00000,  0.00000,  0.00000,1,1,   0.0,   1,1.0000,   0,1.0000,   0,1.0000,   0,1.0000
    16,    11,'1 ', 0.01700, 0.09200,0.15800,   0.00,   0.00,   0.00,  0.00000,  0.00000,  0.00000,  0.00000,1,1,   0.0,   1,1.0000,   0,1.0000,   0,1.0000,   0,1.0000
    12,    15,'1 ', 0.03200, 0.16100,0.30600,   0.00,   0.00,   0.00,  0.00000,  0.00000,  0.00000,  0.00000,1,1,   0.0,   1,1.0000,   0,1.0000,   0,1.0000,   0,1.0000
    13,    16,'1 ', 0.03900, 0.17380,0.35800,   0.00,   0.00,   0.00,  0.00000,  0.00000,  0.00000,  0.00000,1,1,   0.0,   1,1.0000,   0,1.0000,   0,1.0000,   0,1.0000
    12,    18,'1 ', 0.00850, 0.05760,0.14900,   0.00,   0.00,   0.00,  0.00000,  0.00000,  0.00000,  0.00000,1,1,   0.0,   1,1.0000,   0,1.0000,   0,1.0000,   0,1.0000
    18,    13,'1 ', 0.01190, 0.10080,0.20900,   0.00,   0.00,   0.00,  0.00000,  0.00000,  0.00000,  0.00000,1,1,   0.0,   1,1.0000,   0,1.0000,   0,1.0000,   0,1.0000
    5,    15,'1 ', 0.00850, 0.05760,0.14900,   0.00,   0.00,   0.00,  0.00000,  0.00000,  0.00000,  0.00000,1,1,   0.0,   1,1.0000,   0,1.0000,   0,1.0000,   0,1.0000
0 / END OF BRANCH DATA, BEGIN TRANSFORMER DATA
0 / END OF TRANSFORMER DATA, BEGIN AREA DATA
   1,    0,     0.000,     1.000,'1           '
0 / END OF AREA DATA, BEGIN TWO-TERMINAL DC DATA
0 / END OF TWO-TERMINAL DC DATA, BEGIN VOLTAGE SOURCE CONVERTER DATA
0 / END OF VOLTAGE SOURCE CONVERTER DATA, BEGIN IMPEDANCE CORRECTION DATA
0 / END OF IMPEDANCE CORRECTION DATA, BEGIN MULTI-TERMINAL DC DATA
0 / END OF MULTI-TERMINAL DC DATA, BEGIN MULTI-SECTION LINE DATA
0 / END OF MULTI-SECTION LINE DATA, BEGIN ZONE DATA
   1,'1       '
0 / END OF ZONE DATA, BEGIN INTER-AREA TRANSFER DATA
0 / END OF INTER-AREA TRANSFER DATA, BEGIN OWNER DATA
    1,'1'
0 / END OF OWNER DATA, BEGIN FACTS CONTROL DEVICE DATA
0 / END OF FACTS CONTROL DEVICE DATA, BEGIN SWITCHED SHUNT DATA
0 /END OF SWITCHED SHUNT DATA, BEGIN GNE DEVICE DATA
0 /END OF GNE DEVICE DATA
Q
